OPT_V10/Two_days_MYC3_SOS/powerflow_results_t45.txt
Pandapower Network Debug Info
==================================================

BUS:
       vm_pu  va_degree      p_mw    q_mvar
0   0.993101   0.124422  0.000983  0.000971
1   0.988982   0.216347  0.001280  0.001839
2   0.985171   0.313308  0.001697  0.003146
3   0.989176   0.191869  0.002776  0.003896
4   0.999886   0.000237  0.011383  0.009937
5   0.999874   0.000199  0.012223  0.007813
6   0.999865   0.000195  0.011714  0.008967
7   0.999930   0.000273  0.000000  0.000000
8   0.999930   0.000279  0.000000  0.000000
9   1.000000   0.000000 -0.042196 -0.041665
10  1.000000   0.000006  0.000000  0.000000
--------------------------------------------------

LINE:
   p_from_mw  q_from_mvar   p_to_mw  q_to_mvar         pl_mw       ql_mvar  i_from_ka   i_to_ka      i_ka  vm_from_pu  va_from_degree  vm_to_pu  va_to_degree  loading_percent
0   0.042186     0.037665 -0.042183  -0.037662  3.128372e-06  2.439243e-06   0.002177  0.002177  0.002177    1.000000        0.000006  0.999930      0.000273         0.946412
1   0.035322     0.026720 -0.035320  -0.026718  1.517047e-06  1.182866e-06   0.001705  0.001705  0.001705    0.999930        0.000273  0.999886      0.000237         0.741226
2   0.006852     0.009943 -0.006784  -0.009889  6.820373e-05  5.317957e-05   0.017430  0.017430  0.017430    0.999930        0.000279  0.993101      0.124422         7.578135
3  -0.023937    -0.016781  0.023937   0.016781  2.956063e-07  2.304891e-07   0.001125  0.001125  0.001125    0.999874        0.000199  0.999886      0.000237         0.489272
4  -0.011714    -0.008967  0.011714   0.008967  1.064695e-07  8.301600e-08   0.000568  0.000568  0.000568    0.999865        0.000195  0.999874      0.000199         0.246916
5  -0.002989    -0.004994  0.003009   0.005010  2.048924e-05  1.597580e-05   0.008494  0.008494  0.008494    0.988982        0.216347  0.993101      0.124422         3.693101
6  -0.002776    -0.003896  0.002791   0.003909  1.561735e-05  1.217711e-05   0.006981  0.006981  0.006981    0.989176        0.191869  0.993101      0.124422         3.035076
7  -0.001697    -0.003146  0.001709   0.003155  1.190691e-05  9.284016e-06   0.005237  0.005237  0.005237    0.985171        0.313308  0.988982      0.216347         2.276797
--------------------------------------------------

TRAFO:
    p_hv_mw  q_hv_mvar   p_lv_mw  q_lv_mvar    pl_mw  ql_mvar   i_hv_ka   i_lv_ka  vm_hv_pu  va_hv_degree  vm_lv_pu  va_lv_degree  loading_percent
0  0.006862   0.010942 -0.006852  -0.009943  0.00001    0.001  0.000497  0.017430   0.99993      0.000273   0.99993      0.000279         0.129168
1  0.042196   0.041665 -0.042186  -0.037665  0.00001    0.004  0.000489  0.002177   1.00000      0.000000   1.00000      0.000006         0.148250
--------------------------------------------------
